PDE 2009 03 30  13 38 38.0 42.33 13.36 11.00 4.0 4.4 CENTRAL-ITALY
event name:	S200903301338A
time shift:	
half duration:	0.4
latitude:	42.33
longitude:	13.36
depth:	11.00
Mrr:	
Mtt:	
Mpp:	
Mrt:	
Mrp:	
Mtp:	
