PDE 2011 06 17  05 31 00.0 43.82 16.50 10.00 4.1 4.0 NORTHWESTERN-BALKAN-REGI-
event name:	201106170531
time shift:	
half duration:	1.0
latitude:	43.82
longitude:	16.50
depth:	10.00
Mrr:	
Mtt:	
Mpp:	
Mrt:	
Mrp:	
Mtp:	
