PDE 2009 04 05  20 48 56.4 42.36 13.37 10.00 4.0 4.2 CENTRAL-ITALY
event name:	S200904052048A
time shift:	
half duration:	0.3
latitude:	42.36
longitude:	13.37
depth:	10.00
Mrr:	
Mtt:	
Mpp:	
Mrt:	
Mrp:	
Mtp:	
