PDE 2009 06 22  20 58 40.0 42.45 13.36 14.00 4.5 4.7 CENTRAL-ITALY
event name:	200906222058
time shift:	
half duration:	0.5
latitude:	42.45
longitude:	13.36
depth:	14.00
Mrr:	
Mtt:	
Mpp:	
Mrt:	
Mrp:	
Mtp:	
