PDE 2012 03 04  03 47 39.0 42.03 7.63 2.00 4.6 4.5 WESTERN-MEDITERRANEAN-SE-
event name:	201203040347
time shift:	
half duration:	1.0
latitude:	42.03
longitude:	7.63
depth:	2.00
Mrr:	
Mtt:	
Mpp:	
Mrt:	
Mrp:	
Mtp:	
