PDE 2009 04 09  04 32 44.0 42.44 13.42 10.00 4.0 4.3 CENTRAL-ITALY
event name:	200904090432
time shift:	
half duration:	0.3
latitude:	42.44
longitude:	13.42
depth:	10.00
Mrr:	
Mtt:	
Mpp:	
Mrt:	
Mrp:	
Mtp:	
