PDE 2009 03 19  14 15 20.7 35.19 23.52 69.00 5.0 5.0 CRETE 
event name:	S200903191415A
time shift:	
half duration:	0.9
latitude:	35.19
longitude:	23.52
depth:	69.00
Mrr:	
Mtt:	
Mpp:	
Mrt:	
Mrp:	
Mtp:	
