PDE 2009 04 08  22 56 50.0 42.51 13.36 10.00 4.3 4.1 CENTRAL-ITALY
event name:	200904082256
time shift:	
half duration:	0.2
latitude:	42.51
longitude:	13.36
depth:	10.00
Mrr:	
Mtt:	
Mpp:	
Mrt:	
Mrp:	
Mtp:	
