PDE 2009 04 14  20 17 27.0 42.53 13.28 10.00 4.1 4.0 CENTRAL-ITALY
event name:	200904142017
time shift:	
half duration:	0.2
latitude:	42.53
longitude:	13.28
depth:	10.00
Mrr:	
Mtt:	
Mpp:	
Mrt:	
Mrp:	
Mtp:	
