PDE 2011 10 29  04 13 34.0 45.71 10.92 15.00 4.2 4.1 NORTHERN-ITALY-----------
event name:	S201110290413A
time shift:	
half duration:	1.0
latitude:	45.71
longitude:	10.92
depth:	15.00
Mrr:	
Mtt:	
Mpp:	
Mrt:	
Mrp:	
Mtp:	
