PDE 2012 07 30  09 01 17.0 44.18 17.91 2.00 4.5 4.4 NORTHWESTERN-BALKAN-REGI-
event name:	S201207300901A
time shift:	
half duration:	1.0
latitude:	44.18
longitude:	17.91
depth:	2.00
Mrr:	
Mtt:	
Mpp:	
Mrt:	
Mrp:	
Mtp:	
