PDE 2012 06 06  04 08 31.0 44.43 12.35 25.60 4.5 4.2 NORTHERN-ITALY-----------
event name:	201206060408
time shift:	
half duration:	1.0
latitude:	44.43
longitude:	12.35
depth:	25.60
Mrr:	
Mtt:	
Mpp:	
Mrt:	
Mrp:	
Mtp:	
