PDE 2013 07 21  03 07 25.0 43.51 13.73 10.00 4.0 4.2 CENTRAL-ITALY------------
event name:	201307210307
time shift:	
half duration:	1.0
latitude:	43.51
longitude:	13.73
depth:	10.00
Mrr:	
Mtt:	
Mpp:	
Mrt:	
Mrp:	
Mtp:	
