PDE 2012 07 27  23 12 22.0 44.19 17.92 2.00 4.5 4.7 NORTHWESTERN-BALKAN-REGI-
event name:	201207272312
time shift:	
half duration:	1.0
latitude:	44.19
longitude:	17.92
depth:	2.00
Mrr:	
Mtt:	
Mpp:	
Mrt:	
Mrp:	
Mtp:	
