PDE 2013 02 04  04 29 46.0 43.63 16.35 10.00 4.4 4.1 NORTHWESTERN-BALKAN-REGI-
event name:	S201302040429A
time shift:	
half duration:	1.0
latitude:	43.63
longitude:	16.35
depth:	10.00
Mrr:	
Mtt:	
Mpp:	
Mrt:	
Mrp:	
Mtp:	
