PDE 2012 08 03  19 57 27.0 43.98 16.77 20.00 4.6 4.5 NORTHWESTERN-BALKAN-REGI-
event name:	201208031957
time shift:	
half duration:	1.0
latitude:	43.98
longitude:	16.77
depth:	20.00
Mrr:	
Mtt:	
Mpp:	
Mrt:	
Mrp:	
Mtp:	
