PDE 2009 07 12  08 38 51.0 42.34 13.38 10.00 4.0 4.3 CENTRAL-ITALY
event name:	200907120838
time shift:	
half duration:	0.4
latitude:	42.34
longitude:	13.38
depth:	10.00
Mrr:	
Mtt:	
Mpp:	
Mrt:	
Mrp:	
Mtp:	
