PDE 2011 07 02  14 43 00.0 41.96 7.58 40.00 4.0 4.3 WESTERN-MEDITERRANEAN-SE-
event name:	S201107021443A
time shift:	
half duration:	1.0
latitude:	41.96
longitude:	7.58
depth:	40.00
Mrr:	
Mtt:	
Mpp:	
Mrt:	
Mrp:	
Mtp:	
