PDE 2013 02 02  13 35 34.0 46.51 14.66 10.00 4.5 4.4 NORTHWESTERN-BALKAN-REGI-
event name:	201302021335
time shift:	
half duration:	1.0
latitude:	46.51
longitude:	14.66
depth:	10.00
Mrr:	
Mtt:	
Mpp:	
Mrt:	
Mrp:	
Mtp:	
