PDE 2011 04 28  23 30 44.0 44.76 17.32 10.00 4.5 4.4 NORTHWESTERN-BALKAN-REGI-
event name:	S201104282330A
time shift:	
half duration:	1.0
latitude:	44.76
longitude:	17.32
depth:	10.00
Mrr:	
Mtt:	
Mpp:	
Mrt:	
Mrp:	
Mtp:	
