PDE 2012 06 09  02 04 56.0 46.21 12.44 7.10 4.5 4.2 NORTHERN-ITALY-----------
event name:	201206090204
time shift:	
half duration:	1.0
latitude:	46.21
longitude:	12.44
depth:	7.10
Mrr:	
Mtt:	
Mpp:	
Mrt:	
Mrp:	
Mtp:	
