PDE 2013 02 16  21 16 00.0 41.71 13.58 11.00 4.9 4.9 SOUTHERN-ITALY-----------
event name:	201302162116
time shift:	
half duration:	0.7
latitude:	41.71
longitude:	13.58
depth:	11.00
Mrr:	
Mtt:	
Mpp:	
Mrt:	
Mrp:	
Mtp:	
