PDE 2009 04 23  21 49 00.0 42.23 13.48 10.00 4.0 4.3 CENTRAL-ITALY
event name:	S200904232149A
time shift:	
half duration:	0.3
latitude:	42.23
longitude:	13.48
depth:	10.00
Mrr:	
Mtt:	
Mpp:	
Mrt:	
Mrp:	
Mtp:	
