PDE 2009 04 06  03 56 48.0 42.38 13.34 10.00 4.5 4.5 CENTRAL-ITALY
event name:	200904060356
time shift:	
half duration:	1.0
latitude:	42.38
longitude:	13.34
depth:	10.00
Mrr:	
Mtt:	
Mpp:	
Mrt:	
Mrp:	
Mtp:	
