PDE 2010 09 17  12 20 18.0 41.49 15.63 30.10 4.4 4.3 SOUTHERNITALY           
event name:	201009171220
time shift:	
half duration:	1.0
latitude:	41.49
longitude:	15.63
depth:	30.10
Mrr:	
Mtt:	
Mpp:	
Mrt:	
Mrp:	
Mtp:	
