PDE 2013 08 22  06 44 52.0 43.58 13.69 10.00 4.5 4.5 CENTRAL-ITALY------------
event name:	S201308220644A
time shift:	
half duration:	1.0
latitude:	43.58
longitude:	13.69
depth:	10.00
Mrr:	
Mtt:	
Mpp:	
Mrt:	
Mrp:	
Mtp:	
