PDE 2010 06 20  23 13 52.5 43.78 17.00 10.00 4.5 4.4 NORTHWESTERN BALKAN REGI 
event name:	201006202313
time shift:	
half duration:	1.0
latitude:	43.78
longitude:	17.00
depth:	10.00
Mrr:	
Mtt:	
Mpp:	
Mrt:	
Mrp:	
Mtp:	
