PDE 2009 03 25  12 23 25.0 40.34 19.63 10.00 4.4 4.3 ALBANIA 
event name:	S200903251223A
time shift:	
half duration:	0.4
latitude:	40.34
longitude:	19.63
depth:	10.00
Mrr:	
Mtt:	
Mpp:	
Mrt:	
Mrp:	
Mtp:	
