PDE 2009 04 13  21 14 24.0 42.50 13.36 10.00 4.9 5.0 CENTRAL-ITALY
event name:	C200904132114A
time shift:	
half duration:	0.8
latitude:	42.50
longitude:	13.36
depth:	10.00
Mrr:	
Mtt:	
Mpp:	
Mrt:	
Mrp:	
Mtp:	
