PDE 2009 04 08  04 27 42.5 42.30 13.43 10.00 4.0 4.0 CENTRAL-ITALY
event name:	200904080427
time shift:	
half duration:	0.2
latitude:	42.30
longitude:	13.43
depth:	10.00
Mrr:	
Mtt:	
Mpp:	
Mrt:	
Mrp:	
Mtp:	
