PDE 2011 07 12  06 53 22.0 43.92 11.86 7.80 4.0 4.3 CENTRAL-ITALY------------
event name:	201107120653
time shift:	
half duration:	1.0
latitude:	43.92
longitude:	11.86
depth:	7.80
Mrr:	
Mtt:	
Mpp:	
Mrt:	
Mrp:	
Mtp:	
