PDE 2011 02 14  12 43 12.0 50.36 7.68 10.00 4.8 4.0 GERMANY------------------
event name:	S201102141243A
time shift:	
half duration:	1.1
latitude:	50.36
longitude:	7.68
depth:	10.00
Mrr:	
Mtt:	
Mpp:	
Mrt:	
Mrp:	
Mtp:	
