PDE 2009 04 06  16 38 00.0 42.36 13.33 10.00 4.0 4.4 CENTRAL-ITALY
event name:	200904061638
time shift:	
half duration:	1.0
latitude:	42.36
longitude:	13.33
depth:	10.00
Mrr:	
Mtt:	
Mpp:	
Mrt:	
Mrp:	
Mtp:	
