PDE 2009 12 15  13 11 58.0 43.01 12.28 15.00 4.2 4.2 CENTRAL ITALY 
event name:	S200912151311A
time shift:	
half duration:	1.0
latitude:	43.01
longitude:	12.28
depth:	15.00
Mrr:	
Mtt:	
Mpp:	
Mrt:	
Mrp:	
Mtp:	
