PDE 2010 04 15  01 47 37.2 43.49 12.44 2.00 4.0 4.1 CENTRAL ITALY
event name:	S201004150147A
time shift:	
half duration:	1.0
latitude:	43.49
longitude:	12.44
depth:	2.00
Mrr:	
Mtt:	
Mpp:	
Mrt:	
Mrp:	
Mtp:	
