PDE 2011 07 25  12 31 20.0 44.98 7.28 25.10 4.3 4.7 NORTHERN-ITALY-----------
event name:	201107251231
time shift:	
half duration:	1.0
latitude:	44.98
longitude:	7.28
depth:	25.10
Mrr:	
Mtt:	
Mpp:	
Mrt:	
Mrp:	
Mtp:	
