PDE 2009 04 15  22 53 00.6 42.54 13.28 10.00 4.0 4.1 CENTRAL-ITALY
event name:	S200904152253A
time shift:	
half duration:	1.0
latitude:	42.54
longitude:	13.28
depth:	10.00
Mrr:	
Mtt:	
Mpp:	
Mrt:	
Mrp:	
Mtp:	
