PDE 2009 04 05  20 20 53.0 44.24 12.00 28.00 4.6 4.8 NORTHERN ITALY 
event name:	C200904052020A
time shift:	
half duration:	1.0
latitude:	44.24
longitude:	12.00
depth:	28.00
Mrr:	
Mtt:	
Mpp:	
Mrt:	
Mrp:	
Mtp:	
