PDE 2014 01 20  07 12 40.0 41.36 14.45 15.00 4.2 4.4 SOUTHERN-ITALY-----------
event name:	S201401200712A
time shift:	
half duration:	1.0
latitude:	41.36
longitude:	14.45
depth:	15.00
Mrr:	
Mtt:	
Mpp:	
Mrt:	
Mrp:	
Mtp:	
