PDE 2009 09 20  03 50 17.0 43.40 13.39 37.00 4.6 4.7 CENTRAL ITALY 
event name:	C200909200350A
time shift:	
half duration:	0.5
latitude:	43.40
longitude:	13.39
depth:	37.00
Mrr:	
Mtt:	
Mpp:	
Mrt:	
Mrp:	
Mtp:	
