PDE 2009 09 24  16 14 57.0 42.45 13.33 10.00 4.1 4.2 CENTRAL ITALY 
event name:	S200909241614A
time shift:	
half duration:	1.0
latitude:	42.45
longitude:	13.33
depth:	10.00
Mrr:	
Mtt:	
Mpp:	
Mrt:	
Mrp:	
Mtp:	
