PDE 2009 01 04  15 30 30.0 47.35 9.39 10.00 4.4 4.0 GERMANY 
event name:	S200901041530A
time shift:	
half duration:	0.3
latitude:	47.35
longitude:	9.39
depth:	10.00
Mrr:	
Mtt:	
Mpp:	
Mrt:	
Mrp:	
Mtp:	
