PDE 2011 08 15  13 08 35.0 43.06 17.75 5.00 4.2 4.0 NORTHWESTERN-BALKAN-REGI-
event name:	201108151308
time shift:	
half duration:	1.0
latitude:	43.06
longitude:	17.75
depth:	5.00
Mrr:	
Mtt:	
Mpp:	
Mrt:	
Mrp:	
Mtp:	
