PDE 2012 02 26  22 37 55.0 44.54 6.66 2.00 4.8 4.5 FRANCE-------------------
event name:	201202262237
time shift:	
half duration:	1.1
latitude:	44.54
longitude:	6.66
depth:	2.00
Mrr:	
Mtt:	
Mpp:	
Mrt:	
Mrp:	
Mtp:	
