PDE 2009 04 23  15 14 00.0 42.25 13.49 10.00 4.0 4.1 CENTRAL-ITALY
event name:	S200904231514A
time shift:	
half duration:	0.3
latitude:	42.25
longitude:	13.49
depth:	10.00
Mrr:	
Mtt:	
Mpp:	
Mrt:	
Mrp:	
Mtp:	
