PDE 2009 07 03  11 03 00.0 42.41 13.39 10.00 4.1 4.1 CENTRAL-ITALY
event name:	S200907031103A
time shift:	
half duration:	0.3
latitude:	42.41
longitude:	13.39
depth:	10.00
Mrr:	
Mtt:	
Mpp:	
Mrt:	
Mrp:	
Mtp:	
