PDE 2009 04 06  02 37 00.4 42.41 13.32 10.00 4.8 5.1 CENTRAL-ITALY
event name:	C200904060237A
time shift:	
half duration:	0.8
latitude:	42.41
longitude:	13.32
depth:	10.00
Mrr:	
Mtt:	
Mpp:	
Mrt:	
Mrp:	
Mtp:	
