PDE 2010 08 28  07 08 00.0 42.85 12.66 15.00 4.0 4.1 CENTRALITALY            
event name:	201008280708
time shift:	
half duration:	1.0
latitude:	42.85
longitude:	12.66
depth:	15.00
Mrr:	
Mtt:	
Mpp:	
Mrt:	
Mrp:	
Mtp:	
