PDE 2010 01 12  08 25 10.0 43.12 13.41 25.00 4.5 4.2 CENTRAL ITALY 
event name:	S201001120825A
time shift:	
half duration:	1.0
latitude:	43.12
longitude:	13.41
depth:	25.00
Mrr:	
Mtt:	
Mpp:	
Mrt:	
Mrp:	
Mtp:	
