PDE 2009 04 07  21 34 29.0 42.38 13.38 10.00 4.2 4.5 CENTRAL-ITALY
event name:	C200904072134A
time shift:	
half duration:	0.5
latitude:	42.38
longitude:	13.38
depth:	10.00
Mrr:	
Mtt:	
Mpp:	
Mrt:	
Mrp:	
Mtp:	
