PDE 2009 05 07  21 27 12.8 47.59 15.74 10.00 4.5 4.4 AUSTRIA 
event name:	200905072127
time shift:	
half duration:	1.0
latitude:	47.59
longitude:	15.74
depth:	10.00
Mrr:	
Mtt:	
Mpp:	
Mrt:	
Mrp:	
Mtp:	
