PDE 2009 03 19  08 27 54.0 36.52 12.72 28.00 4.0 4.4 MEDITERRANEAN SEA 
event name:	S200903190827A
time shift:	
half duration:	1.0
latitude:	36.52
longitude:	12.72
depth:	28.00
Mrr:	
Mtt:	
Mpp:	
Mrt:	
Mrp:	
Mtp:	
