PDE 2010 10 13  22 43 14.0 44.14 12.37 35.20 4.1 4.1 NORTHERNITALY           
event name:	201010132243
time shift:	
half duration:	1.0
latitude:	44.14
longitude:	12.37
depth:	35.20
Mrr:	
Mtt:	
Mpp:	
Mrt:	
Mrp:	
Mtp:	
