PDE 2010 01 12  13 35 47.0 43.26 13.47 31.00 4.6 4.1 CENTRAL ITALY 
event name:	S201001121335A
time shift:	
half duration:	1.0
latitude:	43.26
longitude:	13.47
depth:	31.00
Mrr:	
Mtt:	
Mpp:	
Mrt:	
Mrp:	
Mtp:	
