PDE 2009 06 21  11 20 06.8 43.45 17.29 30.00 4.6 4.6 YUGOSLAVIA 
event name:	200906211120
time shift:	
half duration:	0.5
latitude:	43.45
longitude:	17.29
depth:	30.00
Mrr:	
Mtt:	
Mpp:	
Mrt:	
Mrp:	
Mtp:	
