PDE 2013 07 30  12 58 33.0 45.14 15.09 20.00 4.5 4.6 NORTHWESTERN-BALKAN-REGI-
event name:	S201307301258A
time shift:	
half duration:	1.0
latitude:	45.14
longitude:	15.09
depth:	20.00
Mrr:	
Mtt:	
Mpp:	
Mrt:	
Mrp:	
Mtp:	
