PDE 2009 04 09  03 14 52.0 42.34 13.44 18.00 4.2 4.4 CENTRAL-ITALY
event name:	200904090314
time shift:	
half duration:	0.4
latitude:	42.34
longitude:	13.44
depth:	18.00
Mrr:	
Mtt:	
Mpp:	
Mrt:	
Mrp:	
Mtp:	
