PDE 2012 08 12  01 21 36.0 41.77 16.27 8.40 4.1 4.1 SOUTHERN-ITALY-----------
event name:	201208120121
time shift:	
half duration:	1.0
latitude:	41.77
longitude:	16.27
depth:	8.40
Mrr:	
Mtt:	
Mpp:	
Mrt:	
Mrp:	
Mtp:	
