PDE 2013 12 29  06 54 59.9 43.12 17.31 10.00 4.7 4.3 NORTHWESTERN-BALKAN-REGI-
event name:	S201312290654A
time shift:	
half duration:	1.1
latitude:	43.12
longitude:	17.31
depth:	10.00
Mrr:	
Mtt:	
Mpp:	
Mrt:	
Mrp:	
Mtp:	
