PDEW 2011  2  1  3 32 10.80  22.6700  144.4700  35.0 4.9 0.0 VOLCANO ISLANDS, JAPAN R
event name:     201102010332A
time shift:     -2.2000
half duration:   0.8000
latitude:       22.5200
longitude:     144.7900
depth:          23.5000
Mrr:       3.670000e+23
Mtt:      -7.160000e+22
Mpp:      -2.950000e+23
Mrt:       1.340000e+23
Mrp:       2.340000e+23
Mtp:       3.780000e+22

PDEW 2011  2  1  8 16 32.00  24.1700  121.8300  21.0 5.3 5.5 TAIWAN                  
event name:     201102010816A
time shift:     -0.3000
half duration:   1.1000
latitude:       24.1900
longitude:     121.7300
depth:          12.0000
Mrr:       9.900000e+22
Mtt:      -1.990000e+23
Mpp:       1.000000e+23
Mrt:       6.990000e+23
Mrp:       9.950000e+23
Mtp:      -2.080000e+23

PDEW 2011  2  1 13 39 47.00  10.6200   94.1100  21.8 5.5 5.6 ANDAMAN ISLANDS, INDIA R
event name:     201102011339A
time shift:     -0.8000
half duration:   1.3000
latitude:       10.6200
longitude:      94.2700
depth:          12.0000
Mrr:      -7.340000e+23
Mtt:       2.560000e+23
Mpp:       4.780000e+23
Mrt:       1.220000e+24
Mrp:      -5.000000e+22
Mtp:       1.350000e+24

PDEW 2011  2  1 14  6 18.30 -11.4200  162.8400  35.0 4.3 0.0 SOLOMON ISLANDS         
event name:     201102011406A
time shift:     -0.4000
half duration:   0.8000
latitude:      -11.2000
longitude:     162.6300
depth:          12.0000
Mrr:      -1.290000e+23
Mtt:      -3.350000e+22
Mpp:       1.620000e+23
Mrt:      -5.470000e+22
Mrp:      -1.640000e+23
Mtp:       2.920000e+23

PDEW 2011  2  2  0 38 19.70  55.0600 -160.4800  54.7 5.9 5.9 ALASKA PENINSULA        
event name:     201102020038A
time shift:      0.3000
half duration:   2.2000
latitude:       54.7600
longitude:    -160.2000
depth:          49.8000
Mrr:       7.220000e+24
Mtt:      -6.220000e+24
Mpp:      -1.000000e+24
Mrt:       4.690000e+24
Mrp:       2.450000e+24
Mtp:      -3.740000e+24

PDEW 2011  2  2 12 40 58.80  17.3200  -63.4500 159.6 5.2 0.0 LEEWARD ISLANDS         
event name:     201102021240A
time shift:      1.9000
half duration:   0.8000
latitude:       17.5100
longitude:     -63.5400
depth:         154.0000
Mrr:      -1.940000e+23
Mtt:       4.640000e+23
Mpp:      -2.700000e+23
Mrt:       3.000000e+20
Mrp:      -2.100000e+23
Mtp:       1.270000e+23

PDEW 2011  2  2 16 38 10.60 -24.7100 -180.0000 512.0 5.2 0.0 SOUTH OF FIJI ISLANDS   
event name:     201102021638A
time shift:      2.4000
half duration:   1.0000
latitude:      -24.6800
longitude:    -179.9800
depth:         539.0000
Mrr:      -3.710000e+23
Mtt:       4.280000e+23
Mpp:      -5.700000e+22
Mrt:      -4.100000e+23
Mrp:      -8.240000e+23
Mtp:       3.000000e+21

PDEW 2011  2  3  3 22 54.00 -14.5200  166.6600  24.0 5.3 5.2 VANUATU ISLANDS         
event name:     201102030323A
time shift:      2.3000
half duration:   1.1000
latitude:      -14.5900
longitude:     166.6700
depth:          26.8000
Mrr:       2.000000e+21
Mtt:      -4.300000e+22
Mpp:       4.100000e+22
Mrt:       5.550000e+23
Mrp:      -1.080000e+24
Mtp:       1.080000e+23

PDEW 2011  2  3 11 13 56.20 -18.7900 -176.3300  86.6 4.8 0.0 FIJI ISLANDS REGION     
event name:     201102031113A
time shift:     -7.8000
half duration:   1.0000
latitude:      -18.7000
longitude:    -175.6600
depth:          12.0000
Mrr:       2.900000e+22
Mtt:      -6.670000e+23
Mpp:       6.380000e+23
Mrt:      -1.780000e+23
Mrp:       2.330000e+23
Mtp:      -3.740000e+23

PDEW 2011  2  3 14 51  1.50 -61.9400  153.5500  10.0 4.2 0.0 BALLENY ISLANDS REGION  
event name:     201102031450A
time shift:      2.1000
half duration:   1.2000
latitude:      -62.0000
longitude:     154.5100
depth:          12.8000
Mrr:      -1.160000e+23
Mtt:       1.110000e+24
Mpp:      -9.930000e+23
Mrt:      -3.310000e+23
Mrp:       2.310000e+23
Mtp:      -8.700000e+23

PDEW 2011  2  3 20 25 15.90 -15.5100 -173.0600  10.0 5.4 6.0 TONGA ISLANDS           
event name:     201102032025A
time shift:      6.6000
half duration:   2.2000
latitude:      -15.5000
longitude:    -172.6200
depth:          18.8000
Mrr:       7.410000e+24
Mtt:       4.000000e+22
Mpp:      -7.450000e+24
Mrt:       4.000000e+23
Mrp:       4.380000e+24
Mtp:       1.380000e+24

PDEW 2011  2  3 21 37 52.70  -6.6900  130.5100  96.2 5.4 0.0 BANDA SEA               
event name:     201102032137A
time shift:      1.5000
half duration:   0.9000
latitude:       -6.7300
longitude:     130.5700
depth:          98.8000
Mrr:       1.380000e+23
Mtt:      -5.390000e+23
Mpp:       4.010000e+23
Mrt:       1.930000e+23
Mrp:       4.560000e+23
Mtp:      -2.020000e+23

PDEW 2011  2  4  4 16 37.10  22.5800  143.6000  91.6 5.4 0.0 VOLCANO ISLANDS, JAPAN R
event name:     201102040416A
time shift:      3.7000
half duration:   1.0000
latitude:       22.7100
longitude:     143.6600
depth:         100.1000
Mrr:      -4.480000e+22
Mtt:       1.720000e+23
Mpp:      -1.270000e+23
Mrt:      -8.910000e+23
Mrp:       2.280000e+23
Mtp:      -2.870000e+23

PDEW 2011  2  4  8  6 57.80 -59.3000  149.1400  10.0 4.9 0.0 WEST OF MACQUARIE ISLAND
event name:     201102040806A
time shift:      1.5000
half duration:   1.1000
latitude:      -59.2200
longitude:     149.0400
depth:          12.0000
Mrr:       4.400000e+22
Mtt:       5.060000e+23
Mpp:      -5.500000e+23
Mrt:      -2.970000e+23
Mrp:      -5.600000e+22
Mtp:      -9.380000e+23

SWEQ 2011  2  4  8 34 32.00 -46.2500   95.7500  10.0 0.0 5.2 SOUTHEAST INDIAN RIDGE  
event name:     201102040834A
time shift:      2.9000
half duration:   0.9000
latitude:      -46.4600
longitude:      95.8500
depth:          12.2000
Mrr:      -5.480000e+22
Mtt:      -5.270000e+23
Mpp:       5.820000e+23
Mrt:      -5.770000e+22
Mrp:       1.130000e+23
Mtp:      -2.210000e+23

PDEW 2011  2  4 11 15 45.50  29.1800  130.2300  42.2 5.7 5.3 RYUKYU ISLANDS, JAPAN   
event name:     201102041115A
time shift:      0.0000
half duration:   1.1000
latitude:       29.1900
longitude:     130.3700
depth:          31.3000
Mrr:      -3.180000e+23
Mtt:       5.800000e+22
Mpp:       2.600000e+23
Mrt:       1.550000e+23
Mrp:       1.030000e+24
Mtp:       3.190000e+23

PDEW 2011  2  4 12 16 54.80  11.3200  -62.1500 149.1 5.3 5.1 WINDWARD ISLANDS        
event name:     201102041216A
time shift:      2.8000
half duration:   1.0000
latitude:       11.3500
longitude:     -61.9600
depth:         139.3000
Mrr:       3.010000e+22
Mtt:      -4.550000e+23
Mpp:       4.250000e+23
Mrt:       5.460000e+23
Mrp:       3.840000e+23
Mtp:      -1.740000e+23

PDEW 2011  2  4 13 53 44.20  24.6400   94.6800  66.0 6.5 6.3 MYANMAR-INDIA BORDER REG
event name:     201102041353A
time shift:      4.7000
half duration:   3.3000
latitude:       24.4600
longitude:      94.6800
depth:         103.5000
Mrr:       1.810000e+25
Mtt:      -2.680000e+25
Mpp:       8.690000e+24
Mrt:       4.600000e+23
Mrp:      -1.370000e+25
Mtp:       1.470000e+25

PDEW 2011  2  4 14 20 56.40 -14.1900  166.4600  15.4 5.8 5.9 VANUATU ISLANDS         
event name:     201102041421A
time shift:      5.8000
half duration:   2.2000
latitude:      -14.1800
longitude:     166.3900
depth:          15.8000
Mrr:       9.700000e+24
Mtt:      -6.530000e+24
Mpp:      -3.170000e+24
Mrt:      -1.470000e+24
Mrp:      -2.800000e+23
Mtp:       3.470000e+24

PDEW 2011  2  4 15 23 10.30 -14.2600  166.4200  10.0 5.2 0.0 VANUATU ISLANDS         
event name:     201102041523A
time shift:      7.2000
half duration:   1.3000
latitude:      -14.3000
longitude:     166.5300
depth:          18.1000
Mrr:       1.300000e+24
Mtt:      -6.690000e+23
Mpp:      -6.310000e+23
Mrt:       1.440000e+23
Mrp:       1.360000e+24
Mtp:      -2.850000e+23

PDEW 2011  2  4 16 21 10.90 -14.1600  166.5800  10.0 5.0 0.0 VANUATU ISLANDS         
event name:     201102041621A
time shift:      4.4000
half duration:   1.0000
latitude:      -14.1400
longitude:     166.4300
depth:          14.3000
Mrr:       8.420000e+23
Mtt:      -8.090000e+23
Mpp:      -3.300000e+22
Mrt:       8.600000e+22
Mrp:      -1.530000e+23
Mtp:       1.900000e+22

PDEW 2011  2  5  1 56 13.90  34.7700  140.3500  65.3 5.2 0.0 NEAR EAST COAST OF HONSH
event name:     201102050156A
time shift:     -0.1000
half duration:   0.9000
latitude:       34.7000
longitude:     140.5800
depth:          53.8000
Mrr:      -1.260000e+23
Mtt:       4.950000e+23
Mpp:      -3.690000e+23
Mrt:      -2.740000e+23
Mrp:       2.060000e+23
Mtp:       3.550000e+22

PDEW 2011  2  5  8 37 22.40 -14.1600  166.5700  42.5 5.0 0.0 VANUATU ISLANDS         
event name:     201102050837A
time shift:     -1.2000
half duration:   0.8000
latitude:      -14.2600
longitude:     166.4500
depth:          18.6000
Mrr:       3.660000e+23
Mtt:      -2.650000e+23
Mpp:      -1.010000e+23
Mrt:       1.570000e+23
Mrp:       7.330000e+22
Mtp:       1.310000e+23

PDEW 2011  2  5  8 42 41.80 -55.1600 -130.5000  10.0 4.8 0.0 PACIFIC-ANTARCTIC RIDGE 
event name:     201102050842A
time shift:      3.3000
half duration:   0.7000
latitude:      -54.9400
longitude:    -130.6200
depth:          25.0000
Mrr:      -4.000000e+22
Mtt:       2.300000e+23
Mpp:      -1.900000e+23
Mrt:       1.540000e+22
Mrp:      -1.100000e+22
Mtp:       2.730000e+23

PDEW 2011  2  5 16 11 39.70 -37.6200  -73.4500  28.7 5.3 5.7 NEAR COAST OF CENTRAL CH
event name:     201102051611A
time shift:      2.1000
half duration:   1.7000
latitude:      -37.8100
longitude:     -73.8400
depth:          21.0000
Mrr:       2.310000e+24
Mtt:      -2.000000e+22
Mpp:      -2.290000e+24
Mrt:       3.200000e+22
Mrp:      -3.460000e+24
Mtp:      -1.780000e+23

PDEW 2011  2  6 11 21 17.30  -8.2700  104.0700  13.0 5.6 5.7 SOUTHWEST OF SUMATRA, IN
event name:     201102061121A
time shift:      0.8000
half duration:   1.7000
latitude:       -8.4700
longitude:     104.0500
depth:          12.0000
Mrr:      -2.930000e+24
Mtt:       3.210000e+24
Mpp:      -2.800000e+23
Mrt:       3.330000e+23
Mrp:      -7.680000e+23
Mtp:      -3.010000e+24

PDEW 2011  2  6 13 46 55.00 -13.5600  166.5100  43.5 4.8 0.0 VANUATU ISLANDS         
event name:     201102061346A
time shift:      2.1000
half duration:   0.7000
latitude:      -13.6000
longitude:     166.3600
depth:          19.3000
Mrr:       2.550000e+23
Mtt:       1.010000e+22
Mpp:      -2.650000e+23
Mrt:       1.610000e+23
Mrp:      -6.410000e+22
Mtp:       1.290000e+23

PDEW 2011  2  6 16 47 33.40 -20.4100  168.3000  38.9 5.2 0.0 LOYALTY ISLANDS         
event name:     201102061647A
time shift:      0.5000
half duration:   0.9000
latitude:      -20.7000
longitude:     168.1800
depth:          19.6000
Mrr:      -3.880000e+23
Mtt:       5.410000e+22
Mpp:       3.340000e+23
Mrt:      -3.500000e+23
Mrp:       2.250000e+23
Mtp:      -7.170000e+22

PDEW 2011  2  7  8  8 36.40   0.8100   98.8200  75.2 5.3 0.0 NORTHERN SUMATRA, INDONE
event name:     201102070808A
time shift:      2.6000
half duration:   0.8000
latitude:        0.7800
longitude:      98.6500
depth:          95.6000
Mrr:       2.400000e+23
Mtt:      -2.530000e+22
Mpp:      -2.140000e+23
Mrt:      -6.570000e+22
Mrp:      -4.590000e+23
Mtp:       2.330000e+22

PDEW 2011  2  7 19 53 44.20  -7.1600  155.1800 428.8 5.9 6.4 SOLOMON ISLANDS         
event name:     201102071953A
time shift:      5.6000
half duration:   4.1000
latitude:       -7.0400
longitude:     155.3400
depth:         425.5000
Mrr:       9.230000e+24
Mtt:       2.940000e+25
Mpp:      -3.860000e+25
Mrt:       2.230000e+25
Mrp:      -4.630000e+25
Mtp:       6.850000e+24

PDEW 2011  2  8 13  3 30.60 -27.6200  -69.5200  94.9 5.5 5.4 NORTHERN CHILE          
event name:     201102081303A
time shift:      4.1000
half duration:   1.2000
latitude:      -27.8200
longitude:     -69.9600
depth:         109.3000
Mrr:      -3.110000e+23
Mtt:      -6.190000e+23
Mpp:       9.300000e+23
Mrt:       3.600000e+23
Mrp:       8.850000e+23
Mtp:      -7.210000e+23

PDEW 2011  2  8 15 27  0.10 -10.0000  113.8800  50.3 5.3 0.0 SOUTH OF JAVA, INDONESIA
event name:     201102081527A
time shift:      1.0000
half duration:   1.0000
latitude:      -10.1700
longitude:     113.8600
depth:          47.9000
Mrr:       1.870000e+23
Mtt:       3.310000e+23
Mpp:      -5.190000e+23
Mrt:       4.040000e+23
Mrp:      -1.710000e+23
Mtp:      -4.970000e+23

PDEW 2011  2  8 15 34 30.60  22.7400  144.5600  22.3 5.1 0.0 VOLCANO ISLANDS, JAPAN R
event name:     201102081534A
time shift:      1.6000
half duration:   1.0000
latitude:       22.6500
longitude:     144.7500
depth:          14.0000
Mrr:       3.880000e+23
Mtt:      -1.660000e+22
Mpp:      -3.720000e+23
Mrt:       8.650000e+22
Mrp:       4.880000e+23
Mtp:       1.350000e+23

PDEW 2011  2  8 16 42 40.60  27.3000  143.1600  10.0 5.4 5.4 BONIN ISLANDS, JAPAN REG
event name:     201102081642A
time shift:      2.6000
half duration:   1.2000
latitude:       27.3300
longitude:     143.2600
depth:          12.0000
Mrr:      -1.260000e+24
Mtt:       5.300000e+22
Mpp:       1.210000e+24
Mrt:       2.450000e+23
Mrp:      -1.710000e+23
Mtp:      -2.170000e+23

PDEW 2011  2  8 22  2  1.90  43.5400 -127.3100  10.0 5.1 5.4 OFF COAST OF OREGON     
event name:     201102082202A
time shift:      0.0000
half duration:   1.2000
latitude:       43.3100
longitude:    -127.4800
depth:          18.3000
Mrr:      -6.400000e+22
Mtt:      -9.590000e+23
Mpp:       1.020000e+24
Mrt:      -1.280000e+23
Mrp:      -1.420000e+23
Mtp:      -1.060000e+24

PDEW 2011  2  9  1 29 49.40 -14.2600  166.5900  26.2 5.0 0.0 VANUATU ISLANDS         
event name:     201102090129A
time shift:      1.2000
half duration:   0.9000
latitude:      -14.2100
longitude:     166.5000
depth:          12.0000
Mrr:       3.930000e+23
Mtt:      -5.010000e+23
Mpp:       1.070000e+23
Mrt:       1.330000e+23
Mrp:       2.240000e+23
Mtp:       3.120000e+22

PDEW 2011  2  9  9 51 28.10  24.8100  141.1000 209.9 5.1 0.0 VOLCANO ISLANDS, JAPAN R
event name:     201102090951A
time shift:      0.3000
half duration:   0.9000
latitude:       24.8000
longitude:     141.1700
depth:         197.0000
Mrr:       6.710000e+23
Mtt:      -6.460000e+23
Mpp:      -2.440000e+22
Mrt:       1.430000e+22
Mrp:       2.610000e+23
Mtp:       2.190000e+23

PDEW 2011  2  9 14 51 16.00 -16.0700  166.9900  35.0 5.3 0.0 VANUATU ISLANDS         
event name:     201102091451A
time shift:      1.9000
half duration:   1.0000
latitude:      -16.1400
longitude:     166.7800
depth:          30.7000
Mrr:       7.000000e+23
Mtt:       3.200000e+22
Mpp:      -7.320000e+23
Mrt:      -2.220000e+23
Mrp:       1.050000e+23
Mtp:       5.260000e+23

PDEW 2011  2  9 19 24  6.70  11.8100   57.7800  10.0 5.0 0.0 OWEN FRACTURE ZONE REGIO
event name:     201102091924A
time shift:     -0.7000
half duration:   0.8000
latitude:       11.7700
longitude:      57.6800
depth:          14.9000
Mrr:      -3.780000e+22
Mtt:      -3.080000e+23
Mpp:       3.460000e+23
Mrt:       8.740000e+22
Mrp:      -1.190000e+23
Mtp:      -2.820000e+23

PDEW 2011  2  9 21 23 28.60 -31.0900 -177.6600  20.6 4.9 0.0 KERMADEC ISLANDS REGION 
event name:     201102092123A
time shift:      5.1000
half duration:   0.8000
latitude:      -30.9800
longitude:    -177.4400
depth:          23.7000
Mrr:       3.780000e+23
Mtt:      -1.480000e+22
Mpp:      -3.630000e+23
Mrt:       2.020000e+22
Mrp:       1.960000e+23
Mtp:      -6.700000e+22

PDEW 2011  2 10  2 12 25.00 -27.6200  -70.3200  61.9 5.1 0.0 NEAR COAST OF NORTHERN C
event name:     201102100212A
time shift:      5.6000
half duration:   1.0000
latitude:      -27.5600
longitude:     -70.6200
depth:          92.9000
Mrr:       2.690000e+23
Mtt:       4.230000e+23
Mpp:      -6.910000e+23
Mrt:      -2.820000e+23
Mrp:       1.030000e+23
Mtp:      -5.540000e+23

PDEW 2011  2 10  5 35 16.50  52.1300   91.7800  10.0 5.4 5.5 SOUTHWESTERN SIBERIA, RU
event name:     201102100535A
time shift:      1.3000
half duration:   1.3000
latitude:       52.2200
longitude:      91.7600
depth:          26.3000
Mrr:       1.280000e+23
Mtt:      -1.210000e+24
Mpp:       1.080000e+24
Mrt:       2.310000e+23
Mrp:      -3.490000e+23
Mtp:       1.450000e+24

PDEW 2011  2 10 13  3  2.60  37.1400  141.2800  33.0 5.5 5.3 NEAR EAST COAST OF HONSH
event name:     201102101303A
time shift:      3.0000
half duration:   1.3000
latitude:       37.1800
longitude:     141.5500
depth:          43.3000
Mrr:       1.340000e+24
Mtt:      -2.150000e+23
Mpp:      -1.120000e+24
Mrt:       4.320000e+23
Mrp:       9.390000e+23
Mtp:      -5.760000e+23

PDEW 2011  2 10 14 39 27.70   4.2000  122.9700 523.2 6.1 6.5 CELEBES SEA             
event name:     201102101439A
time shift:      2.5000
half duration:   4.5000
latitude:        4.1400
longitude:     122.9100
depth:         520.9000
Mrr:      -5.050000e+25
Mtt:       1.490000e+25
Mpp:       3.560000e+25
Mrt:      -2.210000e+25
Mrp:      -5.520000e+25
Mtp:       2.000000e+25

PDEW 2011  2 10 14 41 58.80   4.0800  123.0400 525.0 6.3 6.6 CELEBES SEA             
event name:     201102101441A
time shift:      2.9000
half duration:   4.4000
latitude:        4.2200
longitude:     123.2800
depth:         517.6000
Mrr:       6.170000e+24
Mtt:       8.300000e+24
Mpp:      -1.450000e+25
Mrt:      -1.470000e+25
Mrp:      -7.010000e+25
Mtp:      -1.250000e+24

PDEW 2011  2 11  1 29 26.50 -15.0400 -177.7000 355.5 4.8 0.0 FIJI ISLANDS REGION     
event name:     201102110129A
time shift:      4.9000
half duration:   0.9000
latitude:      -14.9000
longitude:    -177.5200
depth:         364.7000
Mrr:      -4.250000e+23
Mtt:      -1.280000e+23
Mpp:       5.530000e+23
Mrt:      -2.110000e+23
Mrp:      -4.670000e+23
Mtp:       1.460000e+23

PDEW 2011  2 11  2 46 18.60 -20.8000 -174.5100  11.6 5.0 0.0 TONGA ISLANDS           
event name:     201102110246A
time shift:      4.5000
half duration:   0.7000
latitude:      -20.7700
longitude:    -174.0000
depth:          29.5000
Mrr:       2.720000e+23
Mtt:       4.150000e+22
Mpp:      -3.140000e+23
Mrt:      -1.470000e+23
Mrp:       5.050000e+22
Mtp:      -1.340000e+23

PDEW 2011  2 11  3 54 46.40  -6.4000  130.4500 131.5 4.9 0.0 BANDA SEA               
event name:     201102110354A
time shift:      4.2000
half duration:   0.8000
latitude:       -6.5200
longitude:     130.4500
depth:         151.5000
Mrr:      -1.170000e+23
Mtt:      -6.860000e+22
Mpp:       1.850000e+23
Mrt:      -8.990000e+22
Mrp:       3.410000e+23
Mtp:       3.050000e+22

PDEW 2011  2 11 20  5 30.80 -36.4700  -73.1200  27.6 6.0 6.8 NEAR COAST OF CENTRAL CH
event name:     201102112005A
time shift:      8.3000
half duration:   6.4000
latitude:      -36.6300
longitude:     -73.5600
depth:          17.8000
Mrr:       9.990000e+25
Mtt:      -3.300000e+24
Mpp:      -9.660000e+25
Mrt:       2.500000e+24
Mrp:      -2.090000e+26
Mtp:      -1.320000e+25

PDEW 2011  2 11 23 39 21.30 -37.2000  -73.2000  15.0 5.5 6.0 NEAR COAST OF CENTRAL CH
event name:     201102112339A
time shift:      2.0000
half duration:   2.4000
latitude:      -37.4500
longitude:     -74.1100
depth:          16.4000
Mrr:       6.280000e+24
Mtt:      -3.300000e+23
Mpp:      -5.940000e+24
Mrt:      -3.400000e+23
Mrp:      -1.010000e+25
Mtp:      -7.000000e+23

PDEW 2011  2 12  1 17  1.40 -37.0200  -72.9500  16.0 5.4 6.1 CENTRAL CHILE           
event name:     201102120117A
time shift:      3.9000
half duration:   2.4000
latitude:      -37.3500
longitude:     -74.0000
depth:          14.1000
Mrr:       6.140000e+24
Mtt:       9.000000e+22
Mpp:      -6.230000e+24
Mrt:      -5.300000e+23
Mrp:      -1.060000e+25
Mtp:      -8.300000e+23

PDEW 2011  2 12  2 53 15.10   0.0800  -17.0200  10.0 5.5 5.6 NORTH OF ASCENSION ISLAN
event name:     201102120253A
time shift:      4.9000
half duration:   1.6000
latitude:        0.3100
longitude:     -17.0500
depth:          15.0000
Mrr:       2.760000e+23
Mtt:       7.660000e+23
Mpp:      -1.040000e+24
Mrt:       1.170000e+24
Mrp:      -1.280000e+24
Mtp:      -3.240000e+24

PDEW 2011  2 12  3  3  4.30 -31.2400 -177.8100  10.0 5.2 5.7 KERMADEC ISLANDS REGION 
event name:     201102120303A
time shift:      5.6000
half duration:   1.5000
latitude:      -31.1100
longitude:    -177.4000
depth:          20.6000
Mrr:       2.210000e+24
Mtt:      -1.390000e+23
Mpp:      -2.070000e+24
Mrt:      -1.810000e+23
Mrp:       1.960000e+24
Mtp:      -3.270000e+23

PDEW 2011  2 12  8 20  2.70  -6.5800  154.2100  54.1 5.2 0.0 SOLOMON ISLANDS         
event name:     201102120820A
time shift:     -2.4000
half duration:   0.9000
latitude:       -6.7800
longitude:     154.2500
depth:          19.3000
Mrr:       4.460000e+23
Mtt:      -2.110000e+23
Mpp:      -2.340000e+23
Mrt:       2.300000e+23
Mrp:      -2.590000e+23
Mtp:       1.770000e+23

PDEW 2011  2 12 11 55 24.80   1.9900  126.8300  35.0 5.7 5.7 NORTHERN MOLUCCA SEA    
event name:     201102121155A
time shift:      2.7000
half duration:   1.8000
latitude:        2.1100
longitude:     126.8900
depth:          24.4000
Mrr:       2.880000e+24
Mtt:       1.580000e+24
Mpp:      -4.450000e+24
Mrt:      -3.570000e+24
Mrp:      -1.100000e+24
Mtp:      -1.230000e+24

PDEW 2011  2 12 17 57 56.60 -20.8900 -175.6700  89.6 6.0 6.1 TONGA ISLANDS           
event name:     201102121757A
time shift:      4.7000
half duration:   2.8000
latitude:      -20.9300
longitude:    -175.1900
depth:         111.6000
Mrr:      -9.520000e+24
Mtt:       1.050000e+25
Mpp:      -9.700000e+23
Mrt:       4.350000e+24
Mrp:      -9.030000e+24
Mtp:       1.180000e+25

PDEW 2011  2 13  8 51 34.00 -36.5600  -73.1800  20.7 5.4 5.9 NEAR COAST OF CENTRAL CH
event name:     201102130851A
time shift:      3.5000
half duration:   2.2000
latitude:      -36.7800
longitude:     -73.6100
depth:          16.2000
Mrr:       3.280000e+24
Mtt:      -3.000000e+21
Mpp:      -3.280000e+24
Mrt:      -1.550000e+23
Mrp:      -8.140000e+24
Mtp:      -4.110000e+23

PDEW 2011  2 13 10 35  6.70 -36.6500  -73.1800  17.0 5.6 6.0 NEAR COAST OF CENTRAL CH
event name:     201102131035A
time shift:      3.7000
half duration:   2.3000
latitude:      -36.8300
longitude:     -73.7400
depth:          14.1000
Mrr:       5.750000e+24
Mtt:       4.000000e+22
Mpp:      -5.800000e+24
Mrt:      -4.800000e+23
Mrp:      -8.040000e+24
Mtp:      -8.200000e+23

PDEW 2011  2 13 13 44 36.40 -36.5600  -73.2800  18.8 5.4 5.6 NEAR COAST OF CENTRAL CH
event name:     201102131344A
time shift:      3.8000
half duration:   1.6000
latitude:      -36.7500
longitude:     -73.7400
depth:          17.8000
Mrr:       1.720000e+24
Mtt:      -4.000000e+21
Mpp:      -1.710000e+24
Mrt:      -1.690000e+23
Mrp:      -2.990000e+24
Mtp:      -1.850000e+23

PDEW 2011  2 14  1 55 38.30  -5.0800  144.1700 105.9 5.2 0.0 NEW GUINEA, PAPUA NEW GU
event name:     201102140155A
time shift:      1.5000
half duration:   0.8000
latitude:       -5.1300
longitude:     144.0700
depth:          91.7000
Mrr:      -3.090000e+23
Mtt:       2.570000e+22
Mpp:       2.830000e+23
Mrt:       4.030000e+22
Mrp:       1.350000e+23
Mtp:      -2.160000e+23

PDEW 2011  2 14  3 40  9.90 -35.3800  -72.8300  21.0 5.9 6.6 NEAR COAST OF CENTRAL CH
event name:     201102140340A
time shift:      5.3000
half duration:   5.1000
latitude:      -35.6700
longitude:     -73.6100
depth:          12.0000
Mrr:       5.600000e+25
Mtt:      -2.300000e+24
Mpp:      -5.370000e+25
Mrt:      -1.270000e+25
Mrp:      -9.050000e+25
Mtp:      -1.730000e+25

PDEW 2011  2 14 10 21 27.30 -35.3200  -72.8800  34.1 5.0 5.1 NEAR COAST OF CENTRAL CH
event name:     201102141021A
time shift:      0.4000
half duration:   1.0000
latitude:      -35.6000
longitude:     -73.4100
depth:          14.9000
Mrr:       4.520000e+23
Mtt:      -2.510000e+22
Mpp:      -4.270000e+23
Mrt:       8.100000e+22
Mrp:      -6.550000e+23
Mtp:      -3.690000e+22

PDEW 2011  2 14 12 18 30.30 -35.6200  -72.0000  35.0 4.8 0.0 NEAR COAST OF CENTRAL CH
event name:     201102141218A
time shift:     -4.8000
half duration:   1.0000
latitude:      -35.6500
longitude:     -71.5400
depth:          12.8000
Mrr:      -2.810000e+23
Mtt:      -1.740000e+23
Mpp:       4.540000e+23
Mrt:       3.790000e+23
Mrp:      -6.420000e+23
Mtp:      -1.610000e+22

PDEW 2011  2 14 21 56 45.50 -19.9700  -68.8300 105.9 5.0 5.2 CHILE-BOLIVIA BORDER REG
event name:     201102142156A
time shift:      6.6000
half duration:   1.0000
latitude:      -20.1300
longitude:     -69.2000
depth:         124.1000
Mrr:      -3.330000e+23
Mtt:      -2.010000e+23
Mpp:       5.340000e+23
Mrt:       4.470000e+23
Mrp:      -3.400000e+23
Mtp:       5.290000e+23

PDEW 2011  2 15  5 56  1.90 -16.0700   67.5600  10.0 4.3 0.0 MID-INDIAN RIDGE        
event name:     201102150556A
time shift:      2.9000
half duration:   1.0000
latitude:      -16.0600
longitude:      67.2100
depth:          13.1000
Mrr:      -1.510000e+23
Mtt:      -6.970000e+23
Mpp:       8.480000e+23
Mrt:      -1.360000e+23
Mrp:      -1.080000e+23
Mtp:       3.220000e+23

PDEW 2011  2 15  7 18 17.60  21.1000  121.1900  25.0 5.6 5.5 TAIWAN REGION           
event name:     201102150718A
time shift:      0.8000
half duration:   1.3000
latitude:       21.1000
longitude:     120.8900
depth:          33.8000
Mrr:       1.310000e+24
Mtt:       2.200000e+23
Mpp:      -1.530000e+24
Mrt:      -2.290000e+23
Mrp:      -1.370000e+24
Mtp:      -3.600000e+22

PDEW 2011  2 15  9 18 25.10  52.5800 -169.3100  15.1 4.9 4.6 FOX ISLANDS, ALEUTIAN IS
event name:     201102150918A
time shift:      3.1000
half duration:   0.7000
latitude:       52.5900
longitude:    -169.3100
depth:          17.2000
Mrr:      -3.670000e+23
Mtt:       1.900000e+23
Mpp:       1.770000e+23
Mrt:       3.440000e+22
Mrp:       3.360000e+22
Mtp:      -1.440000e+23

PDEW 2011  2 15 13 33 53.20  -2.5000  121.4800  16.2 5.9 6.1 SULAWESI, INDONESIA     
event name:     201102151333A
time shift:      1.6000
half duration:   2.6000
latitude:       -2.4500
longitude:     121.5700
depth:          12.9000
Mrr:      -1.440000e+24
Mtt:       9.840000e+24
Mpp:      -8.400000e+24
Mrt:       3.500000e+24
Mrp:       4.340000e+24
Mtp:       1.150000e+25

PDEW 2011  2 15 14 12 50.40  25.9100  128.2900   4.3 5.4 0.0 RYUKYU ISLANDS, JAPAN   
event name:     201102151412A
time shift:      2.9000
half duration:   0.9000
latitude:       25.9000
longitude:     128.2700
depth:          13.4000
Mrr:      -3.550000e+23
Mtt:       1.450000e+23
Mpp:       2.100000e+23
Mrt:       1.760000e+23
Mrp:       5.130000e+23
Mtp:       1.830000e+23

PDEW 2011  2 15 19  1  3.40  38.3200  143.1600  26.2 5.2 5.5 OFF EAST COAST OF HONSHU
event name:     201102151901A
time shift:      1.1000
half duration:   1.0000
latitude:       38.3600
longitude:     143.4900
depth:          21.8000
Mrr:       5.920000e+23
Mtt:      -5.600000e+22
Mpp:      -5.360000e+23
Mrt:       2.400000e+23
Mrp:       5.630000e+23
Mtp:      -2.180000e+23

PDEW 2011  2 15 19  6 51.40  38.3900  142.8000  10.0 5.2 0.0 NEAR EAST COAST OF HONSH
event name:     201102151906A
time shift:      2.7000
half duration:   0.9000
latitude:       38.4000
longitude:     143.4500
depth:          26.2000
Mrr:       4.050000e+23
Mtt:      -5.010000e+22
Mpp:      -3.550000e+23
Mrt:       1.110000e+23
Mrp:       4.260000e+23
Mtp:      -1.030000e+23

PDEW 2011  2 15 21 59  2.50  -0.0400  -17.9300  10.0 5.2 0.0 NORTH OF ASCENSION ISLAN
event name:     201102152159A
time shift:      4.2000
half duration:   1.2000
latitude:        0.1100
longitude:     -17.9000
depth:          18.3000
Mrr:       3.400000e+22
Mtt:       4.570000e+23
Mpp:      -4.910000e+23
Mrt:       3.210000e+23
Mrp:      -2.190000e+23
Mtp:      -1.350000e+24

PDEW 2011  2 16  2 15 38.20  -6.1200  149.4000  48.9 5.0 5.4 NEW BRITAIN REGION, P.N.
event name:     201102160215A
time shift:      3.5000
half duration:   1.5000
latitude:       -6.3000
longitude:     149.4900
depth:          47.9000
Mrr:       2.390000e+24
Mtt:      -2.800000e+24
Mpp:       4.160000e+23
Mrt:       3.630000e+23
Mrp:      -3.060000e+23
Mtp:      -1.400000e+22

PDEW 2011  2 16 23 45 10.40  25.9100  128.2800   6.9 5.5 5.2 RYUKYU ISLANDS, JAPAN   
event name:     201102162345A
time shift:      5.7000
half duration:   1.0000
latitude:       25.8800
longitude:     128.5500
depth:          21.1000
Mrr:       4.840000e+23
Mtt:      -1.320000e+23
Mpp:      -3.520000e+23
Mrt:       4.480000e+23
Mrp:       4.970000e+23
Mtp:      -1.180000e+23

PDEW 2011  2 17 20 51  4.60 -14.1600  166.4700  22.3 5.5 5.6 VANUATU ISLANDS         
event name:     201102172051A
time shift:      3.3000
half duration:   1.6000
latitude:      -14.2400
longitude:     166.2900
depth:          12.0000
Mrr:       2.130000e+24
Mtt:      -5.530000e+23
Mpp:      -1.580000e+24
Mrt:       1.270000e+24
Mrp:      -2.620000e+23
Mtp:       2.720000e+24

PDEW 2011  2 18  4 23 18.60  -4.6100  153.1600  57.7 5.3 5.5 NEW IRELAND REGION, P.N.
event name:     201102180423A
time shift:      1.6000
half duration:   1.4000
latitude:       -4.8900
longitude:     153.0400
depth:          53.1000
Mrr:       1.870000e+24
Mtt:      -2.030000e+24
Mpp:       1.580000e+23
Mrt:       9.420000e+23
Mrp:       1.120000e+23
Mtp:       9.400000e+22

PDEW 2011  2 18 17  0 58.70 -33.9300  -72.1100  10.0 5.2 5.2 OFF COAST OF CENTRAL CHI
event name:     201102181701A
time shift:      4.9000
half duration:   1.0000
latitude:      -33.9900
longitude:     -72.3700
depth:          27.3000
Mrr:       5.800000e+23
Mtt:       2.700000e+22
Mpp:      -6.070000e+23
Mrt:       5.400000e+22
Mrp:      -7.390000e+23
Mtp:      -6.000000e+22

PDEW 2011  2 18 17 47 36.70  32.0600 -115.1000   8.0 5.0 5.2 CALIF.-BAJA CALIF. BORDE
event name:     201102181747A
time shift:      1.4000
half duration:   0.9000
latitude:       32.0800
longitude:    -115.0600
depth:          12.0000
Mrr:      -4.640000e+22
Mtt:      -5.730000e+23
Mpp:       6.190000e+23
Mrt:      -1.350000e+23
Mrp:      -2.270000e+23
Mtp:      -1.650000e+23

PDEW 2011  2 18 20 20 30.60  44.8200  150.0900  40.2 5.4 0.0 EAST OF KURIL ISLANDS   
event name:     201102182020A
time shift:      4.0000
half duration:   0.8000
latitude:       44.8400
longitude:     150.2000
depth:          39.2000
Mrr:       2.970000e+23